 ****** HSPICE -- Q-2020.03-SP2-2 linux64 (Nov  1 2020) ******                  
  Copyright (c) 1986 - 2026 by Synopsys, Inc. All Rights Reserved.              
  This software and the associated documentation are proprietary
  to Synopsys, Inc. This software may only be used in accordance
  with the terms and conditions of a written license agreement with
  Synopsys, Inc. All other use, reproduction, or distribution of
  this software is strictly prohibited.
  Input File: Final_Project_Top.sp                                              
  Command line options: /RAID2/cad/synopsys/hspice/2020.03-sp2-2/hspice/linux64/hspice -i Final_Project_Top.sp -o sram_sim
  Start time: Fri Jun 26 17:09:40 2026
 lic:  
 lic: FLEXlm: SDK_12.6 
 lic: USER:   es26mcs051           HOSTNAME: ee29 
 lic: HOSTID: "d85ed3efc151"       PID:      200047 
 lic: Using FLEXlm license file: 
 lic: 26585@lshc 
 lic: Checkout 1 hspice 
 lic: License/Maintenance for hspice will expire on 14-jun-2027/2026.03 
 lic: 535(in_use)/1235(total) FLOATING license(s) on SERVER 26585@lshc 
 lic:   
  **info**  the obsolete option nopage is ignored
  **info**  the obsolete option nopage is ignored
1****** HSPICE -- Q-2020.03-SP2-2 linux64 (Nov  1 2020) ******                  
 ******  
 * ==========================================

 ****** circuit name directory
 circuit number to circuit name directory
   number circuitname                     definition         multiplier
        0 main circuit
        1 x_ctrl.                         control_logic      1.00 
        2 x_dec.                          row_decoder        1.00 
        3 x_mem.                          sram_array         1.00 
        4 xinv_a0.                        inv                1.00 
        5 x_periph.                       col_peripherals    1.00 
        6 x_ctrl.xinv1.                   inv                1.00 
        7 x_ctrl.xinv2.                   inv                1.00 
        8 x_ctrl.xinv3.                   inv                1.00 
        9 x_ctrl.xinv4.                   inv                1.00 
       10 x_ctrl.xinv5.                   inv                1.00 
       11 x_ctrl.xinv6.                   inv                1.00 
       12 x_ctrl.xinv7.                   inv                1.00 
       13 x_ctrl.xinv8.                   inv                1.00 
       14 x_ctrl.xinv9.                   inv                1.00 
       15 x_ctrl.xnand1.                  nand2              1.00 
       16 x_ctrl.xinv10.                  inv                1.00 
       17 x_dec.xbuf_clk.                 inv                1.00 
       18 x_dec.xbuf_clk2.                inv                1.00 
       19 x_dec.xbuf_a0_1.                inv                1.00 
       20 x_dec.xbuf_a0_2.                inv                1.00 
       21 x_dec.xbuf_a1_1.                inv                1.00 
       22 x_dec.xbuf_a1_2.                inv                1.00 
       23 x_dec.xbuf_a2_1.                inv                1.00 
       24 x_dec.xbuf_a2_2.                inv                1.00 
       25 x_dec.xbuf_a3_1.                inv                1.00 
       26 x_dec.xbuf_a3_2.                inv                1.00 
       27 x_dec.xbuf_a4_1.                inv                1.00 
       28 x_dec.xbuf_a4_2.                inv                1.00 
       29 x_dec.xbuf_a5_1.                inv                1.00 
       30 x_dec.xbuf_a5_2.                inv                1.00 
       31 x_dec.x_pd_1_nand_0.            nand3              1.00 
       32 x_dec.x_pd_1_inv_0.             inv                1.00 
       33 x_dec.x_pd_1_nand_1.            nand3              1.00 
       34 x_dec.x_pd_1_inv_1.             inv                1.00 
       35 x_dec.x_pd_1_nand_2.            nand3              1.00 
       36 x_dec.x_pd_1_inv_2.             inv                1.00 
       37 x_dec.x_pd_1_nand_3.            nand3              1.00 
       38 x_dec.x_pd_1_inv_3.             inv                1.00 
       39 x_dec.x_pd_1_nand_4.            nand3              1.00 
       40 x_dec.x_pd_1_inv_4.             inv                1.00 
       41 x_dec.x_pd_1_nand_5.            nand3              1.00 
       42 x_dec.x_pd_1_inv_5.             inv                1.00 
       43 x_dec.x_pd_1_nand_6.            nand3              1.00 
       44 x_dec.x_pd_1_inv_6.             inv                1.00 
       45 x_dec.x_pd_1_nand_7.            nand3              1.00 
       46 x_dec.x_pd_1_inv_7.             inv                1.00 
       47 x_dec.x_pd_2_nand_0.            nand3              1.00 
       48 x_dec.x_pd_2_inv_0.             inv                1.00 
       49 x_dec.x_pd_2_nand_1.            nand3              1.00 
       50 x_dec.x_pd_2_inv_1.             inv                1.00 
       51 x_dec.x_pd_2_nand_2.            nand3              1.00 
       52 x_dec.x_pd_2_inv_2.             inv                1.00 
       53 x_dec.x_pd_2_nand_3.            nand3              1.00 
       54 x_dec.x_pd_2_inv_3.             inv                1.00 
       55 x_dec.x_pd_2_nand_4.            nand3              1.00 
       56 x_dec.x_pd_2_inv_4.             inv                1.00 
       57 x_dec.x_pd_2_nand_5.            nand3              1.00 
       58 x_dec.x_pd_2_inv_5.             inv                1.00 
       59 x_dec.x_pd_2_nand_6.            nand3              1.00 
       60 x_dec.x_pd_2_inv_6.             inv                1.00 
       61 x_dec.x_pd_2_nand_7.            nand3              1.00 
       62 x_dec.x_pd_2_inv_7.             inv                1.00 
       63 x_dec.x_final_nand_0.           nand3              1.00 
       64 x_dec.x_final_inv_0.            inv_large          1.00 
       65 x_dec.x_final_nand_1.           nand3              1.00 
       66 x_dec.x_final_inv_1.            inv_large          1.00 
       67 x_dec.x_final_nand_2.           nand3              1.00 
       68 x_dec.x_final_inv_2.            inv_large          1.00 
       69 x_dec.x_final_nand_3.           nand3              1.00 
       70 x_dec.x_final_inv_3.            inv_large          1.00 
       71 x_dec.x_final_nand_4.           nand3              1.00 
       72 x_dec.x_final_inv_4.            inv_large          1.00 
       73 x_dec.x_final_nand_5.           nand3              1.00 
       74 x_dec.x_final_inv_5.            inv_large          1.00 
       75 x_dec.x_final_nand_6.           nand3              1.00 
       76 x_dec.x_final_inv_6.            inv_large          1.00 
       77 x_dec.x_final_nand_7.           nand3              1.00 
       78 x_dec.x_final_inv_7.            inv_large          1.00 
       79 x_dec.x_final_nand_8.           nand3              1.00 
       80 x_dec.x_final_inv_8.            inv_large          1.00 
       81 x_dec.x_final_nand_9.           nand3              1.00 
       82 x_dec.x_final_inv_9.            inv_large          1.00 
       83 x_dec.x_final_nand_10.          nand3              1.00 
       84 x_dec.x_final_inv_10.           inv_large          1.00 
       85 x_dec.x_final_nand_11.          nand3              1.00 
       86 x_dec.x_final_inv_11.           inv_large          1.00 
       87 x_dec.x_final_nand_12.          nand3              1.00 
       88 x_dec.x_final_inv_12.           inv_large          1.00 
       89 x_dec.x_final_nand_13.          nand3              1.00 
       90 x_dec.x_final_inv_13.           inv_large          1.00 
       91 x_dec.x_final_nand_14.          nand3              1.00 
       92 x_dec.x_final_inv_14.           inv_large          1.00 
       93 x_dec.x_final_nand_15.          nand3              1.00 
       94 x_dec.x_final_inv_15.           inv_large          1.00 
       95 x_dec.x_final_nand_16.          nand3              1.00 
       96 x_dec.x_final_inv_16.           inv_large          1.00 
       97 x_dec.x_final_nand_17.          nand3              1.00 
       98 x_dec.x_final_inv_17.           inv_large          1.00 
       99 x_dec.x_final_nand_18.          nand3              1.00 
      100 x_dec.x_final_inv_18.           inv_large          1.00 
      101 x_dec.x_final_nand_19.          nand3              1.00 
      102 x_dec.x_final_inv_19.           inv_large          1.00 
      103 x_dec.x_final_nand_20.          nand3              1.00 
      104 x_dec.x_final_inv_20.           inv_large          1.00 
      105 x_dec.x_final_nand_21.          nand3              1.00 
      106 x_dec.x_final_inv_21.           inv_large          1.00 
      107 x_dec.x_final_nand_22.          nand3              1.00 
      108 x_dec.x_final_inv_22.           inv_large          1.00 
      109 x_dec.x_final_nand_23.          nand3              1.00 
      110 x_dec.x_final_inv_23.           inv_large          1.00 
      111 x_dec.x_final_nand_24.          nand3              1.00 
      112 x_dec.x_final_inv_24.           inv_large          1.00 
      113 x_dec.x_final_nand_25.          nand3              1.00 
      114 x_dec.x_final_inv_25.           inv_large          1.00 
      115 x_dec.x_final_nand_26.          nand3              1.00 
      116 x_dec.x_final_inv_26.           inv_large          1.00 
      117 x_dec.x_final_nand_27.          nand3              1.00 
      118 x_dec.x_final_inv_27.           inv_large          1.00 
      119 x_dec.x_final_nand_28.          nand3              1.00 
      120 x_dec.x_final_inv_28.           inv_large          1.00 
      121 x_dec.x_final_nand_29.          nand3              1.00 
      122 x_dec.x_final_inv_29.           inv_large          1.00 
      123 x_dec.x_final_nand_30.          nand3              1.00 
      124 x_dec.x_final_inv_30.           inv_large          1.00 
      125 x_dec.x_final_nand_31.          nand3              1.00 
      126 x_dec.x_final_inv_31.           inv_large          1.00 
      127 x_dec.x_final_nand_32.          nand3              1.00 
      128 x_dec.x_final_inv_32.           inv_large          1.00 
      129 x_dec.x_final_nand_33.          nand3              1.00 
      130 x_dec.x_final_inv_33.           inv_large          1.00 
      131 x_dec.x_final_nand_34.          nand3              1.00 
      132 x_dec.x_final_inv_34.           inv_large          1.00 
      133 x_dec.x_final_nand_35.          nand3              1.00 
      134 x_dec.x_final_inv_35.           inv_large          1.00 
      135 x_dec.x_final_nand_36.          nand3              1.00 
      136 x_dec.x_final_inv_36.           inv_large          1.00 
      137 x_dec.x_final_nand_37.          nand3              1.00 
      138 x_dec.x_final_inv_37.           inv_large          1.00 
      139 x_dec.x_final_nand_38.          nand3              1.00 
      140 x_dec.x_final_inv_38.           inv_large          1.00 
      141 x_dec.x_final_nand_39.          nand3              1.00 
      142 x_dec.x_final_inv_39.           inv_large          1.00 
      143 x_dec.x_final_nand_40.          nand3              1.00 
      144 x_dec.x_final_inv_40.           inv_large          1.00 
      145 x_dec.x_final_nand_41.          nand3              1.00 
      146 x_dec.x_final_inv_41.           inv_large          1.00 
      147 x_dec.x_final_nand_42.          nand3              1.00 
      148 x_dec.x_final_inv_42.           inv_large          1.00 
      149 x_dec.x_final_nand_43.          nand3              1.00 
      150 x_dec.x_final_inv_43.           inv_large          1.00 
      151 x_dec.x_final_nand_44.          nand3              1.00 
      152 x_dec.x_final_inv_44.           inv_large          1.00 
      153 x_dec.x_final_nand_45.          nand3              1.00 
      154 x_dec.x_final_inv_45.           inv_large          1.00 
      155 x_dec.x_final_nand_46.          nand3              1.00 
      156 x_dec.x_final_inv_46.           inv_large          1.00 
      157 x_dec.x_final_nand_47.          nand3              1.00 
      158 x_dec.x_final_inv_47.           inv_large          1.00 
      159 x_dec.x_final_nand_48.          nand3              1.00 
      160 x_dec.x_final_inv_48.           inv_large          1.00 
      161 x_dec.x_final_nand_49.          nand3              1.00 
      162 x_dec.x_final_inv_49.           inv_large          1.00 
      163 x_dec.x_final_nand_50.          nand3              1.00 
      164 x_dec.x_final_inv_50.           inv_large          1.00 
      165 x_dec.x_final_nand_51.          nand3              1.00 
      166 x_dec.x_final_inv_51.           inv_large          1.00 
      167 x_dec.x_final_nand_52.          nand3              1.00 
      168 x_dec.x_final_inv_52.           inv_large          1.00 
      169 x_dec.x_final_nand_53.          nand3              1.00 
      170 x_dec.x_final_inv_53.           inv_large          1.00 
      171 x_dec.x_final_nand_54.          nand3              1.00 
      172 x_dec.x_final_inv_54.           inv_large          1.00 
      173 x_dec.x_final_nand_55.          nand3              1.00 
      174 x_dec.x_final_inv_55.           inv_large          1.00 
      175 x_dec.x_final_nand_56.          nand3              1.00 
      176 x_dec.x_final_inv_56.           inv_large          1.00 
      177 x_dec.x_final_nand_57.          nand3              1.00 
      178 x_dec.x_final_inv_57.           inv_large          1.00 
      179 x_dec.x_final_nand_58.          nand3              1.00 
      180 x_dec.x_final_inv_58.           inv_large          1.00 
      181 x_dec.x_final_nand_59.          nand3              1.00 
      182 x_dec.x_final_inv_59.           inv_large          1.00 
      183 x_dec.x_final_nand_60.          nand3              1.00 
      184 x_dec.x_final_inv_60.           inv_large          1.00 
      185 x_dec.x_final_nand_61.          nand3              1.00 
      186 x_dec.x_final_inv_61.           inv_large          1.00 
      187 x_dec.x_final_nand_62.          nand3              1.00 
      188 x_dec.x_final_inv_62.           inv_large          1.00 
      189 x_dec.x_final_nand_63.          nand3              1.00 
      190 x_dec.x_final_inv_63.           inv_large          1.00 
      191 x_mem.x_cell_0_0.               sram               1.00 
      192 x_mem.x_cell_0_1.               sram               1.00 
      193 x_mem.x_cell_0_2.               sram               1.00 
      194 x_mem.x_cell_0_3.               sram               1.00 
      195 x_mem.x_cell_0_4.               sram               1.00 
      196 x_mem.x_cell_0_5.               sram               1.00 
      197 x_mem.x_cell_0_6.               sram               1.00 
      198 x_mem.x_cell_0_7.               sram               1.00 
      199 x_mem.x_cell_0_8.               sram               1.00 
      200 x_mem.x_cell_0_9.               sram               1.00 
      201 x_mem.x_cell_0_10.              sram               1.00 
      202 x_mem.x_cell_0_11.              sram               1.00 
      203 x_mem.x_cell_0_12.              sram               1.00 
      204 x_mem.x_cell_0_13.              sram               1.00 
      205 x_mem.x_cell_0_14.              sram               1.00 
      206 x_mem.x_cell_0_15.              sram               1.00 
      207 x_mem.x_cell_0_16.              sram               1.00 
      208 x_mem.x_cell_0_17.              sram               1.00 
      209 x_mem.x_cell_0_18.              sram               1.00 
      210 x_mem.x_cell_0_19.              sram               1.00 
      211 x_mem.x_cell_0_20.              sram               1.00 
      212 x_mem.x_cell_0_21.              sram               1.00 
      213 x_mem.x_cell_0_22.              sram               1.00 
      214 x_mem.x_cell_0_23.              sram               1.00 
      215 x_mem.x_cell_0_24.              sram               1.00 
      216 x_mem.x_cell_0_25.              sram               1.00 
      217 x_mem.x_cell_0_26.              sram               1.00 
      218 x_mem.x_cell_0_27.              sram               1.00 
      219 x_mem.x_cell_0_28.              sram               1.00 
      220 x_mem.x_cell_0_29.              sram               1.00 
      221 x_mem.x_cell_0_30.              sram               1.00 
      222 x_mem.x_cell_0_31.              sram               1.00 
      223 x_mem.x_cell_1_0.               sram               1.00 
      224 x_mem.x_cell_1_1.               sram               1.00 
      225 x_mem.x_cell_1_2.               sram               1.00 
      226 x_mem.x_cell_1_3.               sram               1.00 
      227 x_mem.x_cell_1_4.               sram               1.00 
      228 x_mem.x_cell_1_5.               sram               1.00 
      229 x_mem.x_cell_1_6.               sram               1.00 
      230 x_mem.x_cell_1_7.               sram               1.00 
      231 x_mem.x_cell_1_8.               sram               1.00 
      232 x_mem.x_cell_1_9.               sram               1.00 
      233 x_mem.x_cell_1_10.              sram               1.00 
      234 x_mem.x_cell_1_11.              sram               1.00 
      235 x_mem.x_cell_1_12.              sram               1.00 
      236 x_mem.x_cell_1_13.              sram               1.00 
      237 x_mem.x_cell_1_14.              sram               1.00 
      238 x_mem.x_cell_1_15.              sram               1.00 
      239 x_mem.x_cell_1_16.              sram               1.00 
      240 x_mem.x_cell_1_17.              sram               1.00 
      241 x_mem.x_cell_1_18.              sram               1.00 
      242 x_mem.x_cell_1_19.              sram               1.00 
      243 x_mem.x_cell_1_20.              sram               1.00 
      244 x_mem.x_cell_1_21.              sram               1.00 
      245 x_mem.x_cell_1_22.              sram               1.00 
      246 x_mem.x_cell_1_23.              sram               1.00 
      247 x_mem.x_cell_1_24.              sram               1.00 
      248 x_mem.x_cell_1_25.              sram               1.00 
      249 x_mem.x_cell_1_26.              sram               1.00 
      250 x_mem.x_cell_1_27.              sram               1.00 
      251 x_mem.x_cell_1_28.              sram               1.00 
      252 x_mem.x_cell_1_29.              sram               1.00 
      253 x_mem.x_cell_1_30.              sram               1.00 
      254 x_mem.x_cell_1_31.              sram               1.00 
      255 x_mem.x_cell_2_0.               sram               1.00 
      256 x_mem.x_cell_2_1.               sram               1.00 
      257 x_mem.x_cell_2_2.               sram               1.00 
      258 x_mem.x_cell_2_3.               sram               1.00 
      259 x_mem.x_cell_2_4.               sram               1.00 
      260 x_mem.x_cell_2_5.               sram               1.00 
      261 x_mem.x_cell_2_6.               sram               1.00 
      262 x_mem.x_cell_2_7.               sram               1.00 
      263 x_mem.x_cell_2_8.               sram               1.00 
      264 x_mem.x_cell_2_9.               sram               1.00 
      265 x_mem.x_cell_2_10.              sram               1.00 
      266 x_mem.x_cell_2_11.              sram               1.00 
      267 x_mem.x_cell_2_12.              sram               1.00 
      268 x_mem.x_cell_2_13.              sram               1.00 
      269 x_mem.x_cell_2_14.              sram               1.00 
      270 x_mem.x_cell_2_15.              sram               1.00 
      271 x_mem.x_cell_2_16.              sram               1.00 
      272 x_mem.x_cell_2_17.              sram               1.00 
      273 x_mem.x_cell_2_18.              sram               1.00 
      274 x_mem.x_cell_2_19.              sram               1.00 
      275 x_mem.x_cell_2_20.              sram               1.00 
      276 x_mem.x_cell_2_21.              sram               1.00 
      277 x_mem.x_cell_2_22.              sram               1.00 
      278 x_mem.x_cell_2_23.              sram               1.00 
      279 x_mem.x_cell_2_24.              sram               1.00 
      280 x_mem.x_cell_2_25.              sram               1.00 
      281 x_mem.x_cell_2_26.              sram               1.00 
      282 x_mem.x_cell_2_27.              sram               1.00 
      283 x_mem.x_cell_2_28.              sram               1.00 
      284 x_mem.x_cell_2_29.              sram               1.00 
      285 x_mem.x_cell_2_30.              sram               1.00 
      286 x_mem.x_cell_2_31.              sram               1.00 
      287 x_mem.x_cell_3_0.               sram               1.00 
      288 x_mem.x_cell_3_1.               sram               1.00 
      289 x_mem.x_cell_3_2.               sram               1.00 
      290 x_mem.x_cell_3_3.               sram               1.00 
      291 x_mem.x_cell_3_4.               sram               1.00 
      292 x_mem.x_cell_3_5.               sram               1.00 
      293 x_mem.x_cell_3_6.               sram               1.00 
      294 x_mem.x_cell_3_7.               sram               1.00 
      295 x_mem.x_cell_3_8.               sram               1.00 
      296 x_mem.x_cell_3_9.               sram               1.00 
      297 x_mem.x_cell_3_10.              sram               1.00 
      298 x_mem.x_cell_3_11.              sram               1.00 
      299 x_mem.x_cell_3_12.              sram               1.00 
      300 x_mem.x_cell_3_13.              sram               1.00 
      301 x_mem.x_cell_3_14.              sram               1.00 
      302 x_mem.x_cell_3_15.              sram               1.00 
      303 x_mem.x_cell_3_16.              sram               1.00 
      304 x_mem.x_cell_3_17.              sram               1.00 
      305 x_mem.x_cell_3_18.              sram               1.00 
      306 x_mem.x_cell_3_19.              sram               1.00 
      307 x_mem.x_cell_3_20.              sram               1.00 
      308 x_mem.x_cell_3_21.              sram               1.00 
      309 x_mem.x_cell_3_22.              sram               1.00 
      310 x_mem.x_cell_3_23.              sram               1.00 
      311 x_mem.x_cell_3_24.              sram               1.00 
      312 x_mem.x_cell_3_25.              sram               1.00 
      313 x_mem.x_cell_3_26.              sram               1.00 
      314 x_mem.x_cell_3_27.              sram               1.00 
      315 x_mem.x_cell_3_28.              sram               1.00 
      316 x_mem.x_cell_3_29.              sram               1.00 
      317 x_mem.x_cell_3_30.              sram               1.00 
      318 x_mem.x_cell_3_31.              sram               1.00 
      319 x_mem.x_cell_4_0.               sram               1.00 
      320 x_mem.x_cell_4_1.               sram               1.00 
      321 x_mem.x_cell_4_2.               sram               1.00 
      322 x_mem.x_cell_4_3.               sram               1.00 
      323 x_mem.x_cell_4_4.               sram               1.00 
      324 x_mem.x_cell_4_5.               sram               1.00 
      325 x_mem.x_cell_4_6.               sram               1.00 
      326 x_mem.x_cell_4_7.               sram               1.00 
      327 x_mem.x_cell_4_8.               sram               1.00 
      328 x_mem.x_cell_4_9.               sram               1.00 
      329 x_mem.x_cell_4_10.              sram               1.00 
      330 x_mem.x_cell_4_11.              sram               1.00 
      331 x_mem.x_cell_4_12.              sram               1.00 
      332 x_mem.x_cell_4_13.              sram               1.00 
      333 x_mem.x_cell_4_14.              sram               1.00 
      334 x_mem.x_cell_4_15.              sram               1.00 
      335 x_mem.x_cell_4_16.              sram               1.00 
      336 x_mem.x_cell_4_17.              sram               1.00 
      337 x_mem.x_cell_4_18.              sram               1.00 
      338 x_mem.x_cell_4_19.              sram               1.00 
      339 x_mem.x_cell_4_20.              sram               1.00 
      340 x_mem.x_cell_4_21.              sram               1.00 
      341 x_mem.x_cell_4_22.              sram               1.00 
      342 x_mem.x_cell_4_23.              sram               1.00 
      343 x_mem.x_cell_4_24.              sram               1.00 
      344 x_mem.x_cell_4_25.              sram               1.00 
      345 x_mem.x_cell_4_26.              sram               1.00 
      346 x_mem.x_cell_4_27.              sram               1.00 
      347 x_mem.x_cell_4_28.              sram               1.00 
      348 x_mem.x_cell_4_29.              sram               1.00 
      349 x_mem.x_cell_4_30.              sram               1.00 
      350 x_mem.x_cell_4_31.              sram               1.00 
      351 x_mem.x_cell_5_0.               sram               1.00 
      352 x_mem.x_cell_5_1.               sram               1.00 
      353 x_mem.x_cell_5_2.               sram               1.00 
      354 x_mem.x_cell_5_3.               sram               1.00 
      355 x_mem.x_cell_5_4.               sram               1.00 
      356 x_mem.x_cell_5_5.               sram               1.00 
      357 x_mem.x_cell_5_6.               sram               1.00 
      358 x_mem.x_cell_5_7.               sram               1.00 
      359 x_mem.x_cell_5_8.               sram               1.00 
      360 x_mem.x_cell_5_9.               sram               1.00 
      361 x_mem.x_cell_5_10.              sram               1.00 
      362 x_mem.x_cell_5_11.              sram               1.00 
      363 x_mem.x_cell_5_12.              sram               1.00 
      364 x_mem.x_cell_5_13.              sram               1.00 
      365 x_mem.x_cell_5_14.              sram               1.00 
      366 x_mem.x_cell_5_15.              sram               1.00 
      367 x_mem.x_cell_5_16.              sram               1.00 
      368 x_mem.x_cell_5_17.              sram               1.00 
      369 x_mem.x_cell_5_18.              sram               1.00 
      370 x_mem.x_cell_5_19.              sram               1.00 
      371 x_mem.x_cell_5_20.              sram               1.00 
      372 x_mem.x_cell_5_21.              sram               1.00 
      373 x_mem.x_cell_5_22.              sram               1.00 
      374 x_mem.x_cell_5_23.              sram               1.00 
      375 x_mem.x_cell_5_24.              sram               1.00 
      376 x_mem.x_cell_5_25.              sram               1.00 
      377 x_mem.x_cell_5_26.              sram               1.00 
      378 x_mem.x_cell_5_27.              sram               1.00 
      379 x_mem.x_cell_5_28.              sram               1.00 
      380 x_mem.x_cell_5_29.              sram               1.00 
      381 x_mem.x_cell_5_30.              sram               1.00 
      382 x_mem.x_cell_5_31.              sram               1.00 
      383 x_mem.x_cell_6_0.               sram               1.00 
      384 x_mem.x_cell_6_1.               sram               1.00 
      385 x_mem.x_cell_6_2.               sram               1.00 
      386 x_mem.x_cell_6_3.               sram               1.00 
      387 x_mem.x_cell_6_4.               sram               1.00 
      388 x_mem.x_cell_6_5.               sram               1.00 
      389 x_mem.x_cell_6_6.               sram               1.00 
      390 x_mem.x_cell_6_7.               sram               1.00 
      391 x_mem.x_cell_6_8.               sram               1.00 
      392 x_mem.x_cell_6_9.               sram               1.00 
      393 x_mem.x_cell_6_10.              sram               1.00 
      394 x_mem.x_cell_6_11.              sram               1.00 
      395 x_mem.x_cell_6_12.              sram               1.00 
      396 x_mem.x_cell_6_13.              sram               1.00 
      397 x_mem.x_cell_6_14.              sram               1.00 
      398 x_mem.x_cell_6_15.              sram               1.00 
      399 x_mem.x_cell_6_16.              sram               1.00 
      400 x_mem.x_cell_6_17.              sram               1.00 
      401 x_mem.x_cell_6_18.              sram               1.00 
      402 x_mem.x_cell_6_19.              sram               1.00 
      403 x_mem.x_cell_6_20.              sram               1.00 
      404 x_mem.x_cell_6_21.              sram               1.00 
      405 x_mem.x_cell_6_22.              sram               1.00 
      406 x_mem.x_cell_6_23.              sram               1.00 
      407 x_mem.x_cell_6_24.              sram               1.00 
      408 x_mem.x_cell_6_25.              sram               1.00 
      409 x_mem.x_cell_6_26.              sram               1.00 
      410 x_mem.x_cell_6_27.              sram               1.00 
      411 x_mem.x_cell_6_28.              sram               1.00 
      412 x_mem.x_cell_6_29.              sram               1.00 
      413 x_mem.x_cell_6_30.              sram               1.00 
      414 x_mem.x_cell_6_31.              sram               1.00 
      415 x_mem.x_cell_7_0.               sram               1.00 
      416 x_mem.x_cell_7_1.               sram               1.00 
      417 x_mem.x_cell_7_2.               sram               1.00 
      418 x_mem.x_cell_7_3.               sram               1.00 
      419 x_mem.x_cell_7_4.               sram               1.00 
      420 x_mem.x_cell_7_5.               sram               1.00 
      421 x_mem.x_cell_7_6.               sram               1.00 
      422 x_mem.x_cell_7_7.               sram               1.00 
      423 x_mem.x_cell_7_8.               sram               1.00 
      424 x_mem.x_cell_7_9.               sram               1.00 
      425 x_mem.x_cell_7_10.              sram               1.00 
      426 x_mem.x_cell_7_11.              sram               1.00 
      427 x_mem.x_cell_7_12.              sram               1.00 
      428 x_mem.x_cell_7_13.              sram               1.00 
      429 x_mem.x_cell_7_14.              sram               1.00 
      430 x_mem.x_cell_7_15.              sram               1.00 
      431 x_mem.x_cell_7_16.              sram               1.00 
      432 x_mem.x_cell_7_17.              sram               1.00 
      433 x_mem.x_cell_7_18.              sram               1.00 
      434 x_mem.x_cell_7_19.              sram               1.00 
      435 x_mem.x_cell_7_20.              sram               1.00 
      436 x_mem.x_cell_7_21.              sram               1.00 
      437 x_mem.x_cell_7_22.              sram               1.00 
      438 x_mem.x_cell_7_23.              sram               1.00 
      439 x_mem.x_cell_7_24.              sram               1.00 
      440 x_mem.x_cell_7_25.              sram               1.00 
      441 x_mem.x_cell_7_26.              sram               1.00 
      442 x_mem.x_cell_7_27.              sram               1.00 
      443 x_mem.x_cell_7_28.              sram               1.00 
      444 x_mem.x_cell_7_29.              sram               1.00 
      445 x_mem.x_cell_7_30.              sram               1.00 
      446 x_mem.x_cell_7_31.              sram               1.00 
      447 x_mem.x_cell_8_0.               sram               1.00 
      448 x_mem.x_cell_8_1.               sram               1.00 
      449 x_mem.x_cell_8_2.               sram               1.00 
      450 x_mem.x_cell_8_3.               sram               1.00 
      451 x_mem.x_cell_8_4.               sram               1.00 
      452 x_mem.x_cell_8_5.               sram               1.00 
      453 x_mem.x_cell_8_6.               sram               1.00 
      454 x_mem.x_cell_8_7.               sram               1.00 
      455 x_mem.x_cell_8_8.               sram               1.00 
      456 x_mem.x_cell_8_9.               sram               1.00 
      457 x_mem.x_cell_8_10.              sram               1.00 
      458 x_mem.x_cell_8_11.              sram               1.00 
      459 x_mem.x_cell_8_12.              sram               1.00 
      460 x_mem.x_cell_8_13.              sram               1.00 
      461 x_mem.x_cell_8_14.              sram               1.00 
      462 x_mem.x_cell_8_15.              sram               1.00 
      463 x_mem.x_cell_8_16.              sram               1.00 
      464 x_mem.x_cell_8_17.              sram               1.00 
      465 x_mem.x_cell_8_18.              sram               1.00 
      466 x_mem.x_cell_8_19.              sram               1.00 
      467 x_mem.x_cell_8_20.              sram               1.00 
      468 x_mem.x_cell_8_21.              sram               1.00 
      469 x_mem.x_cell_8_22.              sram               1.00 
      470 x_mem.x_cell_8_23.              sram               1.00 
      471 x_mem.x_cell_8_24.              sram               1.00 
      472 x_mem.x_cell_8_25.              sram               1.00 
      473 x_mem.x_cell_8_26.              sram               1.00 
      474 x_mem.x_cell_8_27.              sram               1.00 
      475 x_mem.x_cell_8_28.              sram               1.00 
      476 x_mem.x_cell_8_29.              sram               1.00 
      477 x_mem.x_cell_8_30.              sram               1.00 
      478 x_mem.x_cell_8_31.              sram               1.00 
      479 x_mem.x_cell_9_0.               sram               1.00 
      480 x_mem.x_cell_9_1.               sram               1.00 
      481 x_mem.x_cell_9_2.               sram               1.00 
      482 x_mem.x_cell_9_3.               sram               1.00 
      483 x_mem.x_cell_9_4.               sram               1.00 
      484 x_mem.x_cell_9_5.               sram               1.00 
      485 x_mem.x_cell_9_6.               sram               1.00 
      486 x_mem.x_cell_9_7.               sram               1.00 
      487 x_mem.x_cell_9_8.               sram               1.00 
      488 x_mem.x_cell_9_9.               sram               1.00 
      489 x_mem.x_cell_9_10.              sram               1.00 
      490 x_mem.x_cell_9_11.              sram               1.00 
      491 x_mem.x_cell_9_12.              sram               1.00 
      492 x_mem.x_cell_9_13.              sram               1.00 
      493 x_mem.x_cell_9_14.              sram               1.00 
      494 x_mem.x_cell_9_15.              sram               1.00 
      495 x_mem.x_cell_9_16.              sram               1.00 
      496 x_mem.x_cell_9_17.              sram               1.00 
      497 x_mem.x_cell_9_18.              sram               1.00 
      498 x_mem.x_cell_9_19.              sram               1.00 
      499 x_mem.x_cell_9_20.              sram               1.00 
      500 x_mem.x_cell_9_21.              sram               1.00 
      501 x_mem.x_cell_9_22.              sram               1.00 
      502 x_mem.x_cell_9_23.              sram               1.00 
      503 x_mem.x_cell_9_24.              sram               1.00 
      504 x_mem.x_cell_9_25.              sram               1.00 
      505 x_mem.x_cell_9_26.              sram               1.00 
      506 x_mem.x_cell_9_27.              sram               1.00 
      507 x_mem.x_cell_9_28.              sram               1.00 
      508 x_mem.x_cell_9_29.              sram               1.00 
      509 x_mem.x_cell_9_30.              sram               1.00 
      510 x_mem.x_cell_9_31.              sram               1.00 
      511 x_mem.x_cell_10_0.              sram               1.00 
      512 x_mem.x_cell_10_1.              sram               1.00 
      513 x_mem.x_cell_10_2.              sram               1.00 
      514 x_mem.x_cell_10_3.              sram               1.00 
      515 x_mem.x_cell_10_4.              sram               1.00 
      516 x_mem.x_cell_10_5.              sram               1.00 
      517 x_mem.x_cell_10_6.              sram               1.00 
      518 x_mem.x_cell_10_7.              sram               1.00 
      519 x_mem.x_cell_10_8.              sram               1.00 
      520 x_mem.x_cell_10_9.              sram               1.00 
      521 x_mem.x_cell_10_10.             sram               1.00 
      522 x_mem.x_cell_10_11.             sram               1.00 
      523 x_mem.x_cell_10_12.             sram               1.00 
      524 x_mem.x_cell_10_13.             sram               1.00 
      525 x_mem.x_cell_10_14.             sram               1.00 
      526 x_mem.x_cell_10_15.             sram               1.00 
      527 x_mem.x_cell_10_16.             sram               1.00 
      528 x_mem.x_cell_10_17.             sram               1.00 
      529 x_mem.x_cell_10_18.             sram               1.00 
      530 x_mem.x_cell_10_19.             sram               1.00 
      531 x_mem.x_cell_10_20.             sram               1.00 
      532 x_mem.x_cell_10_21.             sram               1.00 
      533 x_mem.x_cell_10_22.             sram               1.00 
      534 x_mem.x_cell_10_23.             sram               1.00 
      535 x_mem.x_cell_10_24.             sram               1.00 
      536 x_mem.x_cell_10_25.             sram               1.00 
      537 x_mem.x_cell_10_26.             sram               1.00 
      538 x_mem.x_cell_10_27.             sram               1.00 
      539 x_mem.x_cell_10_28.             sram               1.00 
      540 x_mem.x_cell_10_29.             sram               1.00 
      541 x_mem.x_cell_10_30.             sram               1.00 
      542 x_mem.x_cell_10_31.             sram               1.00 
      543 x_mem.x_cell_11_0.              sram               1.00 
      544 x_mem.x_cell_11_1.              sram               1.00 
      545 x_mem.x_cell_11_2.              sram               1.00 
      546 x_mem.x_cell_11_3.              sram               1.00 
      547 x_mem.x_cell_11_4.              sram               1.00 
      548 x_mem.x_cell_11_5.              sram               1.00 
      549 x_mem.x_cell_11_6.              sram               1.00 
      550 x_mem.x_cell_11_7.              sram               1.00 
      551 x_mem.x_cell_11_8.              sram               1.00 
      552 x_mem.x_cell_11_9.              sram               1.00 
      553 x_mem.x_cell_11_10.             sram               1.00 
      554 x_mem.x_cell_11_11.             sram               1.00 
      555 x_mem.x_cell_11_12.             sram               1.00 
      556 x_mem.x_cell_11_13.             sram               1.00 
      557 x_mem.x_cell_11_14.             sram               1.00 
      558 x_mem.x_cell_11_15.             sram               1.00 
      559 x_mem.x_cell_11_16.             sram               1.00 
      560 x_mem.x_cell_11_17.             sram               1.00 
      561 x_mem.x_cell_11_18.             sram               1.00 
      562 x_mem.x_cell_11_19.             sram               1.00 
      563 x_mem.x_cell_11_20.             sram               1.00 
      564 x_mem.x_cell_11_21.             sram               1.00 
      565 x_mem.x_cell_11_22.             sram               1.00 
      566 x_mem.x_cell_11_23.             sram               1.00 
      567 x_mem.x_cell_11_24.             sram               1.00 
      568 x_mem.x_cell_11_25.             sram               1.00 
      569 x_mem.x_cell_11_26.             sram               1.00 
      570 x_mem.x_cell_11_27.             sram               1.00 
      571 x_mem.x_cell_11_28.             sram               1.00 
      572 x_mem.x_cell_11_29.             sram               1.00 
      573 x_mem.x_cell_11_30.             sram               1.00 
      574 x_mem.x_cell_11_31.             sram               1.00 
      575 x_mem.x_cell_12_0.              sram               1.00 
      576 x_mem.x_cell_12_1.              sram               1.00 
      577 x_mem.x_cell_12_2.              sram               1.00 
      578 x_mem.x_cell_12_3.              sram               1.00 
      579 x_mem.x_cell_12_4.              sram               1.00 
      580 x_mem.x_cell_12_5.              sram               1.00 
      581 x_mem.x_cell_12_6.              sram               1.00 
      582 x_mem.x_cell_12_7.              sram               1.00 
      583 x_mem.x_cell_12_8.              sram               1.00 
      584 x_mem.x_cell_12_9.              sram               1.00 
      585 x_mem.x_cell_12_10.             sram               1.00 
      586 x_mem.x_cell_12_11.             sram               1.00 
      587 x_mem.x_cell_12_12.             sram               1.00 
      588 x_mem.x_cell_12_13.             sram               1.00 
      589 x_mem.x_cell_12_14.             sram               1.00 
      590 x_mem.x_cell_12_15.             sram               1.00 
      591 x_mem.x_cell_12_16.             sram               1.00 
      592 x_mem.x_cell_12_17.             sram               1.00 
      593 x_mem.x_cell_12_18.             sram               1.00 
      594 x_mem.x_cell_12_19.             sram               1.00 
      595 x_mem.x_cell_12_20.             sram               1.00 
      596 x_mem.x_cell_12_21.             sram               1.00 
      597 x_mem.x_cell_12_22.             sram               1.00 
      598 x_mem.x_cell_12_23.             sram               1.00 
      599 x_mem.x_cell_12_24.             sram               1.00 
      600 x_mem.x_cell_12_25.             sram               1.00 
      601 x_mem.x_cell_12_26.             sram               1.00 
      602 x_mem.x_cell_12_27.             sram               1.00 
      603 x_mem.x_cell_12_28.             sram               1.00 
      604 x_mem.x_cell_12_29.             sram               1.00 
      605 x_mem.x_cell_12_30.             sram               1.00 
      606 x_mem.x_cell_12_31.             sram               1.00 
      607 x_mem.x_cell_13_0.              sram               1.00 
      608 x_mem.x_cell_13_1.              sram               1.00 
      609 x_mem.x_cell_13_2.              sram               1.00 
      610 x_mem.x_cell_13_3.              sram               1.00 
      611 x_mem.x_cell_13_4.              sram               1.00 
      612 x_mem.x_cell_13_5.              sram               1.00 
      613 x_mem.x_cell_13_6.              sram               1.00 
      614 x_mem.x_cell_13_7.              sram               1.00 
      615 x_mem.x_cell_13_8.              sram               1.00 
      616 x_mem.x_cell_13_9.              sram               1.00 
      617 x_mem.x_cell_13_10.             sram               1.00 
      618 x_mem.x_cell_13_11.             sram               1.00 
      619 x_mem.x_cell_13_12.             sram               1.00 
      620 x_mem.x_cell_13_13.             sram               1.00 
      621 x_mem.x_cell_13_14.             sram               1.00 
      622 x_mem.x_cell_13_15.             sram               1.00 
      623 x_mem.x_cell_13_16.             sram               1.00 
      624 x_mem.x_cell_13_17.             sram               1.00 
      625 x_mem.x_cell_13_18.             sram               1.00 
      626 x_mem.x_cell_13_19.             sram               1.00 
      627 x_mem.x_cell_13_20.             sram               1.00 
      628 x_mem.x_cell_13_21.             sram               1.00 
      629 x_mem.x_cell_13_22.             sram               1.00 
      630 x_mem.x_cell_13_23.             sram               1.00 
      631 x_mem.x_cell_13_24.             sram               1.00 
      632 x_mem.x_cell_13_25.             sram               1.00 
      633 x_mem.x_cell_13_26.             sram               1.00 
      634 x_mem.x_cell_13_27.             sram               1.00 
      635 x_mem.x_cell_13_28.             sram               1.00 
      636 x_mem.x_cell_13_29.             sram               1.00 
      637 x_mem.x_cell_13_30.             sram               1.00 
      638 x_mem.x_cell_13_31.             sram               1.00 
      639 x_mem.x_cell_14_0.              sram               1.00 
      640 x_mem.x_cell_14_1.              sram               1.00 
      641 x_mem.x_cell_14_2.              sram               1.00 
      642 x_mem.x_cell_14_3.              sram               1.00 
      643 x_mem.x_cell_14_4.              sram               1.00 
      644 x_mem.x_cell_14_5.              sram               1.00 
      645 x_mem.x_cell_14_6.              sram               1.00 
      646 x_mem.x_cell_14_7.              sram               1.00 
      647 x_mem.x_cell_14_8.              sram               1.00 
      648 x_mem.x_cell_14_9.              sram               1.00 
      649 x_mem.x_cell_14_10.             sram               1.00 
      650 x_mem.x_cell_14_11.             sram               1.00 
      651 x_mem.x_cell_14_12.             sram               1.00 
      652 x_mem.x_cell_14_13.             sram               1.00 
      653 x_mem.x_cell_14_14.             sram               1.00 
      654 x_mem.x_cell_14_15.             sram               1.00 
      655 x_mem.x_cell_14_16.             sram               1.00 
      656 x_mem.x_cell_14_17.             sram               1.00 
      657 x_mem.x_cell_14_18.             sram               1.00 
      658 x_mem.x_cell_14_19.             sram               1.00 
      659 x_mem.x_cell_14_20.             sram               1.00 
      660 x_mem.x_cell_14_21.             sram               1.00 
      661 x_mem.x_cell_14_22.             sram               1.00 
      662 x_mem.x_cell_14_23.             sram               1.00 
      663 x_mem.x_cell_14_24.             sram               1.00 
      664 x_mem.x_cell_14_25.             sram               1.00 
      665 x_mem.x_cell_14_26.             sram               1.00 
      666 x_mem.x_cell_14_27.             sram               1.00 
      667 x_mem.x_cell_14_28.             sram               1.00 
      668 x_mem.x_cell_14_29.             sram               1.00 
      669 x_mem.x_cell_14_30.             sram               1.00 
      670 x_mem.x_cell_14_31.             sram               1.00 
      671 x_mem.x_cell_15_0.              sram               1.00 
      672 x_mem.x_cell_15_1.              sram               1.00 
      673 x_mem.x_cell_15_2.              sram               1.00 
      674 x_mem.x_cell_15_3.              sram               1.00 
      675 x_mem.x_cell_15_4.              sram               1.00 
      676 x_mem.x_cell_15_5.              sram               1.00 
      677 x_mem.x_cell_15_6.              sram               1.00 
      678 x_mem.x_cell_15_7.              sram               1.00 
      679 x_mem.x_cell_15_8.              sram               1.00 
      680 x_mem.x_cell_15_9.              sram               1.00 
      681 x_mem.x_cell_15_10.             sram               1.00 
      682 x_mem.x_cell_15_11.             sram               1.00 
      683 x_mem.x_cell_15_12.             sram               1.00 
      684 x_mem.x_cell_15_13.             sram               1.00 
      685 x_mem.x_cell_15_14.             sram               1.00 
      686 x_mem.x_cell_15_15.             sram               1.00 
      687 x_mem.x_cell_15_16.             sram               1.00 
      688 x_mem.x_cell_15_17.             sram               1.00 
      689 x_mem.x_cell_15_18.             sram               1.00 
      690 x_mem.x_cell_15_19.             sram               1.00 
      691 x_mem.x_cell_15_20.             sram               1.00 
      692 x_mem.x_cell_15_21.             sram               1.00 
      693 x_mem.x_cell_15_22.             sram               1.00 
      694 x_mem.x_cell_15_23.             sram               1.00 
      695 x_mem.x_cell_15_24.             sram               1.00 
      696 x_mem.x_cell_15_25.             sram               1.00 
      697 x_mem.x_cell_15_26.             sram               1.00 
      698 x_mem.x_cell_15_27.             sram               1.00 
      699 x_mem.x_cell_15_28.             sram               1.00 
      700 x_mem.x_cell_15_29.             sram               1.00 
      701 x_mem.x_cell_15_30.             sram               1.00 
      702 x_mem.x_cell_15_31.             sram               1.00 
      703 x_mem.x_cell_16_0.              sram               1.00 
      704 x_mem.x_cell_16_1.              sram               1.00 
      705 x_mem.x_cell_16_2.              sram               1.00 
      706 x_mem.x_cell_16_3.              sram               1.00 
      707 x_mem.x_cell_16_4.              sram               1.00 
      708 x_mem.x_cell_16_5.              sram               1.00 
      709 x_mem.x_cell_16_6.              sram               1.00 
      710 x_mem.x_cell_16_7.              sram               1.00 
      711 x_mem.x_cell_16_8.              sram               1.00 
      712 x_mem.x_cell_16_9.              sram               1.00 
      713 x_mem.x_cell_16_10.             sram               1.00 
      714 x_mem.x_cell_16_11.             sram               1.00 
      715 x_mem.x_cell_16_12.             sram               1.00 
      716 x_mem.x_cell_16_13.             sram               1.00 
      717 x_mem.x_cell_16_14.             sram               1.00 
      718 x_mem.x_cell_16_15.             sram               1.00 
      719 x_mem.x_cell_16_16.             sram               1.00 
      720 x_mem.x_cell_16_17.             sram               1.00 
      721 x_mem.x_cell_16_18.             sram               1.00 
      722 x_mem.x_cell_16_19.             sram               1.00 
      723 x_mem.x_cell_16_20.             sram               1.00 
      724 x_mem.x_cell_16_21.             sram               1.00 
      725 x_mem.x_cell_16_22.             sram               1.00 
      726 x_mem.x_cell_16_23.             sram               1.00 
      727 x_mem.x_cell_16_24.             sram               1.00 
      728 x_mem.x_cell_16_25.             sram               1.00 
      729 x_mem.x_cell_16_26.             sram               1.00 
      730 x_mem.x_cell_16_27.             sram               1.00 
      731 x_mem.x_cell_16_28.             sram               1.00 
      732 x_mem.x_cell_16_29.             sram               1.00 
      733 x_mem.x_cell_16_30.             sram               1.00 
      734 x_mem.x_cell_16_31.             sram               1.00 
      735 x_mem.x_cell_17_0.              sram               1.00 
      736 x_mem.x_cell_17_1.              sram               1.00 
      737 x_mem.x_cell_17_2.              sram               1.00 
      738 x_mem.x_cell_17_3.              sram               1.00 
      739 x_mem.x_cell_17_4.              sram               1.00 
      740 x_mem.x_cell_17_5.              sram               1.00 
      741 x_mem.x_cell_17_6.              sram               1.00 
      742 x_mem.x_cell_17_7.              sram               1.00 
      743 x_mem.x_cell_17_8.              sram               1.00 
      744 x_mem.x_cell_17_9.              sram               1.00 
      745 x_mem.x_cell_17_10.             sram               1.00 
      746 x_mem.x_cell_17_11.             sram               1.00 
      747 x_mem.x_cell_17_12.             sram               1.00 
      748 x_mem.x_cell_17_13.             sram               1.00 
      749 x_mem.x_cell_17_14.             sram               1.00 
      750 x_mem.x_cell_17_15.             sram               1.00 
      751 x_mem.x_cell_17_16.             sram               1.00 
      752 x_mem.x_cell_17_17.             sram               1.00 
      753 x_mem.x_cell_17_18.             sram               1.00 
      754 x_mem.x_cell_17_19.             sram               1.00 
      755 x_mem.x_cell_17_20.             sram               1.00 
      756 x_mem.x_cell_17_21.             sram               1.00 
      757 x_mem.x_cell_17_22.             sram               1.00 
      758 x_mem.x_cell_17_23.             sram               1.00 
      759 x_mem.x_cell_17_24.             sram               1.00 
      760 x_mem.x_cell_17_25.             sram               1.00 
      761 x_mem.x_cell_17_26.             sram               1.00 
      762 x_mem.x_cell_17_27.             sram               1.00 
      763 x_mem.x_cell_17_28.             sram               1.00 
      764 x_mem.x_cell_17_29.             sram               1.00 
      765 x_mem.x_cell_17_30.             sram               1.00 
      766 x_mem.x_cell_17_31.             sram               1.00 
      767 x_mem.x_cell_18_0.              sram               1.00 
      768 x_mem.x_cell_18_1.              sram               1.00 
      769 x_mem.x_cell_18_2.              sram               1.00 
      770 x_mem.x_cell_18_3.              sram               1.00 
      771 x_mem.x_cell_18_4.              sram               1.00 
      772 x_mem.x_cell_18_5.              sram               1.00 
      773 x_mem.x_cell_18_6.              sram               1.00 
      774 x_mem.x_cell_18_7.              sram               1.00 
      775 x_mem.x_cell_18_8.              sram               1.00 
      776 x_mem.x_cell_18_9.              sram               1.00 
      777 x_mem.x_cell_18_10.             sram               1.00 
      778 x_mem.x_cell_18_11.             sram               1.00 
      779 x_mem.x_cell_18_12.             sram               1.00 
      780 x_mem.x_cell_18_13.             sram               1.00 
      781 x_mem.x_cell_18_14.             sram               1.00 
      782 x_mem.x_cell_18_15.             sram               1.00 
      783 x_mem.x_cell_18_16.             sram               1.00 
      784 x_mem.x_cell_18_17.             sram               1.00 
      785 x_mem.x_cell_18_18.             sram               1.00 
      786 x_mem.x_cell_18_19.             sram               1.00 
      787 x_mem.x_cell_18_20.             sram               1.00 
      788 x_mem.x_cell_18_21.             sram               1.00 
      789 x_mem.x_cell_18_22.             sram               1.00 
      790 x_mem.x_cell_18_23.             sram               1.00 
      791 x_mem.x_cell_18_24.             sram               1.00 
      792 x_mem.x_cell_18_25.             sram               1.00 
      793 x_mem.x_cell_18_26.             sram               1.00 
      794 x_mem.x_cell_18_27.             sram               1.00 
      795 x_mem.x_cell_18_28.             sram               1.00 
      796 x_mem.x_cell_18_29.             sram               1.00 
      797 x_mem.x_cell_18_30.             sram               1.00 
      798 x_mem.x_cell_18_31.             sram               1.00 
      799 x_mem.x_cell_19_0.              sram               1.00 
      800 x_mem.x_cell_19_1.              sram               1.00 
      801 x_mem.x_cell_19_2.              sram               1.00 
      802 x_mem.x_cell_19_3.              sram               1.00 
      803 x_mem.x_cell_19_4.              sram               1.00 
      804 x_mem.x_cell_19_5.              sram               1.00 
      805 x_mem.x_cell_19_6.              sram               1.00 
      806 x_mem.x_cell_19_7.              sram               1.00 
      807 x_mem.x_cell_19_8.              sram               1.00 
      808 x_mem.x_cell_19_9.              sram               1.00 
      809 x_mem.x_cell_19_10.             sram               1.00 
      810 x_mem.x_cell_19_11.             sram               1.00 
      811 x_mem.x_cell_19_12.             sram               1.00 
      812 x_mem.x_cell_19_13.             sram               1.00 
      813 x_mem.x_cell_19_14.             sram               1.00 
      814 x_mem.x_cell_19_15.             sram               1.00 
      815 x_mem.x_cell_19_16.             sram               1.00 
      816 x_mem.x_cell_19_17.             sram               1.00 
      817 x_mem.x_cell_19_18.             sram               1.00 
      818 x_mem.x_cell_19_19.             sram               1.00 
      819 x_mem.x_cell_19_20.             sram               1.00 
      820 x_mem.x_cell_19_21.             sram               1.00 
      821 x_mem.x_cell_19_22.             sram               1.00 
      822 x_mem.x_cell_19_23.             sram               1.00 
      823 x_mem.x_cell_19_24.             sram               1.00 
      824 x_mem.x_cell_19_25.             sram               1.00 
      825 x_mem.x_cell_19_26.             sram               1.00 
      826 x_mem.x_cell_19_27.             sram               1.00 
      827 x_mem.x_cell_19_28.             sram               1.00 
      828 x_mem.x_cell_19_29.             sram               1.00 
      829 x_mem.x_cell_19_30.             sram               1.00 
      830 x_mem.x_cell_19_31.             sram               1.00 
      831 x_mem.x_cell_20_0.              sram               1.00 
      832 x_mem.x_cell_20_1.              sram               1.00 
      833 x_mem.x_cell_20_2.              sram               1.00 
      834 x_mem.x_cell_20_3.              sram               1.00 
      835 x_mem.x_cell_20_4.              sram               1.00 
      836 x_mem.x_cell_20_5.              sram               1.00 
      837 x_mem.x_cell_20_6.              sram               1.00 
      838 x_mem.x_cell_20_7.              sram               1.00 
      839 x_mem.x_cell_20_8.              sram               1.00 
      840 x_mem.x_cell_20_9.              sram               1.00 
      841 x_mem.x_cell_20_10.             sram               1.00 
      842 x_mem.x_cell_20_11.             sram               1.00 
      843 x_mem.x_cell_20_12.             sram               1.00 
      844 x_mem.x_cell_20_13.             sram               1.00 
      845 x_mem.x_cell_20_14.             sram               1.00 
      846 x_mem.x_cell_20_15.             sram               1.00 
      847 x_mem.x_cell_20_16.             sram               1.00 
      848 x_mem.x_cell_20_17.             sram               1.00 
      849 x_mem.x_cell_20_18.             sram               1.00 
      850 x_mem.x_cell_20_19.             sram               1.00 
      851 x_mem.x_cell_20_20.             sram               1.00 
      852 x_mem.x_cell_20_21.             sram               1.00 
      853 x_mem.x_cell_20_22.             sram               1.00 
      854 x_mem.x_cell_20_23.             sram               1.00 
      855 x_mem.x_cell_20_24.             sram               1.00 
      856 x_mem.x_cell_20_25.             sram               1.00 
      857 x_mem.x_cell_20_26.             sram               1.00 
      858 x_mem.x_cell_20_27.             sram               1.00 
      859 x_mem.x_cell_20_28.             sram               1.00 
      860 x_mem.x_cell_20_29.             sram               1.00 
      861 x_mem.x_cell_20_30.             sram               1.00 
      862 x_mem.x_cell_20_31.             sram               1.00 
      863 x_mem.x_cell_21_0.              sram               1.00 
      864 x_mem.x_cell_21_1.              sram               1.00 
      865 x_mem.x_cell_21_2.              sram               1.00 
      866 x_mem.x_cell_21_3.              sram               1.00 
      867 x_mem.x_cell_21_4.              sram               1.00 
      868 x_mem.x_cell_21_5.              sram               1.00 
      869 x_mem.x_cell_21_6.              sram               1.00 
      870 x_mem.x_cell_21_7.              sram               1.00 
      871 x_mem.x_cell_21_8.              sram               1.00 
      872 x_mem.x_cell_21_9.              sram               1.00 
      873 x_mem.x_cell_21_10.             sram               1.00 
      874 x_mem.x_cell_21_11.             sram               1.00 
      875 x_mem.x_cell_21_12.             sram               1.00 
      876 x_mem.x_cell_21_13.             sram               1.00 
      877 x_mem.x_cell_21_14.             sram               1.00 
      878 x_mem.x_cell_21_15.             sram               1.00 
      879 x_mem.x_cell_21_16.             sram               1.00 
      880 x_mem.x_cell_21_17.             sram               1.00 
      881 x_mem.x_cell_21_18.             sram               1.00 
      882 x_mem.x_cell_21_19.             sram               1.00 
      883 x_mem.x_cell_21_20.             sram               1.00 
      884 x_mem.x_cell_21_21.             sram               1.00 
      885 x_mem.x_cell_21_22.             sram               1.00 
      886 x_mem.x_cell_21_23.             sram               1.00 
      887 x_mem.x_cell_21_24.             sram               1.00 
      888 x_mem.x_cell_21_25.             sram               1.00 
      889 x_mem.x_cell_21_26.             sram               1.00 
      890 x_mem.x_cell_21_27.             sram               1.00 
      891 x_mem.x_cell_21_28.             sram               1.00 
      892 x_mem.x_cell_21_29.             sram               1.00 
      893 x_mem.x_cell_21_30.             sram               1.00 
      894 x_mem.x_cell_21_31.             sram               1.00 
      895 x_mem.x_cell_22_0.              sram               1.00 
      896 x_mem.x_cell_22_1.              sram               1.00 
      897 x_mem.x_cell_22_2.              sram               1.00 
      898 x_mem.x_cell_22_3.              sram               1.00 
      899 x_mem.x_cell_22_4.              sram               1.00 
      900 x_mem.x_cell_22_5.              sram               1.00 
      901 x_mem.x_cell_22_6.              sram               1.00 
      902 x_mem.x_cell_22_7.              sram               1.00 
      903 x_mem.x_cell_22_8.              sram               1.00 
      904 x_mem.x_cell_22_9.              sram               1.00 
      905 x_mem.x_cell_22_10.             sram               1.00 
      906 x_mem.x_cell_22_11.             sram               1.00 
      907 x_mem.x_cell_22_12.             sram               1.00 
      908 x_mem.x_cell_22_13.             sram               1.00 
      909 x_mem.x_cell_22_14.             sram               1.00 
      910 x_mem.x_cell_22_15.             sram               1.00 
      911 x_mem.x_cell_22_16.             sram               1.00 
      912 x_mem.x_cell_22_17.             sram               1.00 
      913 x_mem.x_cell_22_18.             sram               1.00 
      914 x_mem.x_cell_22_19.             sram               1.00 
      915 x_mem.x_cell_22_20.             sram               1.00 
      916 x_mem.x_cell_22_21.             sram               1.00 
      917 x_mem.x_cell_22_22.             sram               1.00 
      918 x_mem.x_cell_22_23.             sram               1.00 
      919 x_mem.x_cell_22_24.             sram               1.00 
      920 x_mem.x_cell_22_25.             sram               1.00 
      921 x_mem.x_cell_22_26.             sram               1.00 
      922 x_mem.x_cell_22_27.             sram               1.00 
      923 x_mem.x_cell_22_28.             sram               1.00 
      924 x_mem.x_cell_22_29.             sram               1.00 
      925 x_mem.x_cell_22_30.             sram               1.00 
      926 x_mem.x_cell_22_31.             sram               1.00 
      927 x_mem.x_cell_23_0.              sram               1.00 
      928 x_mem.x_cell_23_1.              sram               1.00 
      929 x_mem.x_cell_23_2.              sram               1.00 
      930 x_mem.x_cell_23_3.              sram               1.00 
      931 x_mem.x_cell_23_4.              sram               1.00 
      932 x_mem.x_cell_23_5.              sram               1.00 
      933 x_mem.x_cell_23_6.              sram               1.00 
      934 x_mem.x_cell_23_7.              sram               1.00 
      935 x_mem.x_cell_23_8.              sram               1.00 
      936 x_mem.x_cell_23_9.              sram               1.00 
      937 x_mem.x_cell_23_10.             sram               1.00 
      938 x_mem.x_cell_23_11.             sram               1.00 
      939 x_mem.x_cell_23_12.             sram               1.00 
      940 x_mem.x_cell_23_13.             sram               1.00 
      941 x_mem.x_cell_23_14.             sram               1.00 
      942 x_mem.x_cell_23_15.             sram               1.00 
      943 x_mem.x_cell_23_16.             sram               1.00 
      944 x_mem.x_cell_23_17.             sram               1.00 
      945 x_mem.x_cell_23_18.             sram               1.00 
      946 x_mem.x_cell_23_19.             sram               1.00 
      947 x_mem.x_cell_23_20.             sram               1.00 
      948 x_mem.x_cell_23_21.             sram               1.00 
      949 x_mem.x_cell_23_22.             sram               1.00 
      950 x_mem.x_cell_23_23.             sram               1.00 
      951 x_mem.x_cell_23_24.             sram               1.00 
      952 x_mem.x_cell_23_25.             sram               1.00 
      953 x_mem.x_cell_23_26.             sram               1.00 
      954 x_mem.x_cell_23_27.             sram               1.00 
      955 x_mem.x_cell_23_28.             sram               1.00 
      956 x_mem.x_cell_23_29.             sram               1.00 
      957 x_mem.x_cell_23_30.             sram               1.00 
      958 x_mem.x_cell_23_31.             sram               1.00 
      959 x_mem.x_cell_24_0.              sram               1.00 
      960 x_mem.x_cell_24_1.              sram               1.00 
      961 x_mem.x_cell_24_2.              sram               1.00 
      962 x_mem.x_cell_24_3.              sram               1.00 
      963 x_mem.x_cell_24_4.              sram               1.00 
      964 x_mem.x_cell_24_5.              sram               1.00 
      965 x_mem.x_cell_24_6.              sram               1.00 
      966 x_mem.x_cell_24_7.              sram               1.00 
      967 x_mem.x_cell_24_8.              sram               1.00 
      968 x_mem.x_cell_24_9.              sram               1.00 
      969 x_mem.x_cell_24_10.             sram               1.00 
      970 x_mem.x_cell_24_11.             sram               1.00 
      971 x_mem.x_cell_24_12.             sram               1.00 
      972 x_mem.x_cell_24_13.             sram               1.00 
      973 x_mem.x_cell_24_14.             sram               1.00 
      974 x_mem.x_cell_24_15.             sram               1.00 
      975 x_mem.x_cell_24_16.             sram               1.00 
      976 x_mem.x_cell_24_17.             sram               1.00 
      977 x_mem.x_cell_24_18.             sram               1.00 
      978 x_mem.x_cell_24_19.             sram               1.00 
      979 x_mem.x_cell_24_20.             sram               1.00 
      980 x_mem.x_cell_24_21.             sram               1.00 
      981 x_mem.x_cell_24_22.             sram               1.00 
      982 x_mem.x_cell_24_23.             sram               1.00 
      983 x_mem.x_cell_24_24.             sram               1.00 
      984 x_mem.x_cell_24_25.             sram               1.00 
      985 x_mem.x_cell_24_26.             sram               1.00 
      986 x_mem.x_cell_24_27.             sram               1.00 
      987 x_mem.x_cell_24_28.             sram               1.00 
      988 x_mem.x_cell_24_29.             sram               1.00 
      989 x_mem.x_cell_24_30.             sram               1.00 
      990 x_mem.x_cell_24_31.             sram               1.00 
      991 x_mem.x_cell_25_0.              sram               1.00 
      992 x_mem.x_cell_25_1.              sram               1.00 
      993 x_mem.x_cell_25_2.              sram               1.00 
      994 x_mem.x_cell_25_3.              sram               1.00 
      995 x_mem.x_cell_25_4.              sram               1.00 
      996 x_mem.x_cell_25_5.              sram               1.00 
      997 x_mem.x_cell_25_6.              sram               1.00 
      998 x_mem.x_cell_25_7.              sram               1.00 
      999 x_mem.x_cell_25_8.              sram               1.00 
     1000 x_mem.x_cell_25_9.              sram               1.00 
     1001 x_mem.x_cell_25_10.             sram               1.00 
     1002 x_mem.x_cell_25_11.             sram               1.00 
     1003 x_mem.x_cell_25_12.             sram               1.00 
     1004 x_mem.x_cell_25_13.             sram               1.00 
     1005 x_mem.x_cell_25_14.             sram               1.00 
     1006 x_mem.x_cell_25_15.             sram               1.00 
     1007 x_mem.x_cell_25_16.             sram               1.00 
     1008 x_mem.x_cell_25_17.             sram               1.00 
     1009 x_mem.x_cell_25_18.             sram               1.00 
     1010 x_mem.x_cell_25_19.             sram               1.00 
     1011 x_mem.x_cell_25_20.             sram               1.00 
     1012 x_mem.x_cell_25_21.             sram               1.00 
     1013 x_mem.x_cell_25_22.             sram               1.00 
     1014 x_mem.x_cell_25_23.             sram               1.00 
     1015 x_mem.x_cell_25_24.             sram               1.00 
     1016 x_mem.x_cell_25_25.             sram               1.00 
     1017 x_mem.x_cell_25_26.             sram               1.00 
     1018 x_mem.x_cell_25_27.             sram               1.00 
     1019 x_mem.x_cell_25_28.             sram               1.00 
     1020 x_mem.x_cell_25_29.             sram               1.00 
     1021 x_mem.x_cell_25_30.             sram               1.00 
     1022 x_mem.x_cell_25_31.             sram               1.00 
     1023 x_mem.x_cell_26_0.              sram               1.00 
     1024 x_mem.x_cell_26_1.              sram               1.00 
     1025 x_mem.x_cell_26_2.              sram               1.00 
     1026 x_mem.x_cell_26_3.              sram               1.00 
     1027 x_mem.x_cell_26_4.              sram               1.00 
     1028 x_mem.x_cell_26_5.              sram               1.00 
     1029 x_mem.x_cell_26_6.              sram               1.00 
     1030 x_mem.x_cell_26_7.              sram               1.00 
     1031 x_mem.x_cell_26_8.              sram               1.00 
     1032 x_mem.x_cell_26_9.              sram               1.00 
     1033 x_mem.x_cell_26_10.             sram               1.00 
     1034 x_mem.x_cell_26_11.             sram               1.00 
     1035 x_mem.x_cell_26_12.             sram               1.00 
     1036 x_mem.x_cell_26_13.             sram               1.00 
     1037 x_mem.x_cell_26_14.             sram               1.00 
     1038 x_mem.x_cell_26_15.             sram               1.00 
     1039 x_mem.x_cell_26_16.             sram               1.00 
     1040 x_mem.x_cell_26_17.             sram               1.00 
     1041 x_mem.x_cell_26_18.             sram               1.00 
     1042 x_mem.x_cell_26_19.             sram               1.00 
     1043 x_mem.x_cell_26_20.             sram               1.00 
     1044 x_mem.x_cell_26_21.             sram               1.00 
     1045 x_mem.x_cell_26_22.             sram               1.00 
     1046 x_mem.x_cell_26_23.             sram               1.00 
     1047 x_mem.x_cell_26_24.             sram               1.00 
     1048 x_mem.x_cell_26_25.             sram               1.00 
     1049 x_mem.x_cell_26_26.             sram               1.00 
     1050 x_mem.x_cell_26_27.             sram               1.00 
     1051 x_mem.x_cell_26_28.             sram               1.00 
     1052 x_mem.x_cell_26_29.             sram               1.00 
     1053 x_mem.x_cell_26_30.             sram               1.00 
     1054 x_mem.x_cell_26_31.             sram               1.00 
     1055 x_mem.x_cell_27_0.              sram               1.00 
     1056 x_mem.x_cell_27_1.              sram               1.00 
     1057 x_mem.x_cell_27_2.              sram               1.00 
     1058 x_mem.x_cell_27_3.              sram               1.00 
     1059 x_mem.x_cell_27_4.              sram               1.00 
     1060 x_mem.x_cell_27_5.              sram               1.00 
     1061 x_mem.x_cell_27_6.              sram               1.00 
     1062 x_mem.x_cell_27_7.              sram               1.00 
     1063 x_mem.x_cell_27_8.              sram               1.00 
     1064 x_mem.x_cell_27_9.              sram               1.00 
     1065 x_mem.x_cell_27_10.             sram               1.00 
     1066 x_mem.x_cell_27_11.             sram               1.00 
     1067 x_mem.x_cell_27_12.             sram               1.00 
     1068 x_mem.x_cell_27_13.             sram               1.00 
     1069 x_mem.x_cell_27_14.             sram               1.00 
     1070 x_mem.x_cell_27_15.             sram               1.00 
     1071 x_mem.x_cell_27_16.             sram               1.00 
     1072 x_mem.x_cell_27_17.             sram               1.00 
     1073 x_mem.x_cell_27_18.             sram               1.00 
     1074 x_mem.x_cell_27_19.             sram               1.00 
     1075 x_mem.x_cell_27_20.             sram               1.00 
     1076 x_mem.x_cell_27_21.             sram               1.00 
     1077 x_mem.x_cell_27_22.             sram               1.00 
     1078 x_mem.x_cell_27_23.             sram               1.00 
     1079 x_mem.x_cell_27_24.             sram               1.00 
     1080 x_mem.x_cell_27_25.             sram               1.00 
     1081 x_mem.x_cell_27_26.             sram               1.00 
     1082 x_mem.x_cell_27_27.             sram               1.00 
     1083 x_mem.x_cell_27_28.             sram               1.00 
     1084 x_mem.x_cell_27_29.             sram               1.00 
     1085 x_mem.x_cell_27_30.             sram               1.00 
     1086 x_mem.x_cell_27_31.             sram               1.00 
     1087 x_mem.x_cell_28_0.              sram               1.00 
     1088 x_mem.x_cell_28_1.              sram               1.00 
     1089 x_mem.x_cell_28_2.              sram               1.00 
     1090 x_mem.x_cell_28_3.              sram               1.00 
     1091 x_mem.x_cell_28_4.              sram               1.00 
     1092 x_mem.x_cell_28_5.              sram               1.00 
     1093 x_mem.x_cell_28_6.              sram               1.00 
     1094 x_mem.x_cell_28_7.              sram               1.00 
     1095 x_mem.x_cell_28_8.              sram               1.00 
     1096 x_mem.x_cell_28_9.              sram               1.00 
     1097 x_mem.x_cell_28_10.             sram               1.00 
     1098 x_mem.x_cell_28_11.             sram               1.00 
     1099 x_mem.x_cell_28_12.             sram               1.00 
     1100 x_mem.x_cell_28_13.             sram               1.00 
     1101 x_mem.x_cell_28_14.             sram               1.00 
     1102 x_mem.x_cell_28_15.             sram               1.00 
     1103 x_mem.x_cell_28_16.             sram               1.00 
     1104 x_mem.x_cell_28_17.             sram               1.00 
     1105 x_mem.x_cell_28_18.             sram               1.00 
     1106 x_mem.x_cell_28_19.             sram               1.00 
     1107 x_mem.x_cell_28_20.             sram               1.00 
     1108 x_mem.x_cell_28_21.             sram               1.00 
     1109 x_mem.x_cell_28_22.             sram               1.00 
     1110 x_mem.x_cell_28_23.             sram               1.00 
     1111 x_mem.x_cell_28_24.             sram               1.00 
     1112 x_mem.x_cell_28_25.             sram               1.00 
     1113 x_mem.x_cell_28_26.             sram               1.00 
     1114 x_mem.x_cell_28_27.             sram               1.00 
     1115 x_mem.x_cell_28_28.             sram               1.00 
     1116 x_mem.x_cell_28_29.             sram               1.00 
     1117 x_mem.x_cell_28_30.             sram               1.00 
     1118 x_mem.x_cell_28_31.             sram               1.00 
     1119 x_mem.x_cell_29_0.              sram               1.00 
     1120 x_mem.x_cell_29_1.              sram               1.00 
     1121 x_mem.x_cell_29_2.              sram               1.00 
     1122 x_mem.x_cell_29_3.              sram               1.00 
     1123 x_mem.x_cell_29_4.              sram               1.00 
     1124 x_mem.x_cell_29_5.              sram               1.00 
     1125 x_mem.x_cell_29_6.              sram               1.00 
     1126 x_mem.x_cell_29_7.              sram               1.00 
     1127 x_mem.x_cell_29_8.              sram               1.00 
     1128 x_mem.x_cell_29_9.              sram               1.00 
     1129 x_mem.x_cell_29_10.             sram               1.00 
     1130 x_mem.x_cell_29_11.             sram               1.00 
     1131 x_mem.x_cell_29_12.             sram               1.00 
     1132 x_mem.x_cell_29_13.             sram               1.00 
     1133 x_mem.x_cell_29_14.             sram               1.00 
     1134 x_mem.x_cell_29_15.             sram               1.00 
     1135 x_mem.x_cell_29_16.             sram               1.00 
     1136 x_mem.x_cell_29_17.             sram               1.00 
     1137 x_mem.x_cell_29_18.             sram               1.00 
     1138 x_mem.x_cell_29_19.             sram               1.00 
     1139 x_mem.x_cell_29_20.             sram               1.00 
     1140 x_mem.x_cell_29_21.             sram               1.00 
     1141 x_mem.x_cell_29_22.             sram               1.00 
     1142 x_mem.x_cell_29_23.             sram               1.00 
     1143 x_mem.x_cell_29_24.             sram               1.00 
     1144 x_mem.x_cell_29_25.             sram               1.00 
     1145 x_mem.x_cell_29_26.             sram               1.00 
     1146 x_mem.x_cell_29_27.             sram               1.00 
     1147 x_mem.x_cell_29_28.             sram               1.00 
     1148 x_mem.x_cell_29_29.             sram               1.00 
     1149 x_mem.x_cell_29_30.             sram               1.00 
     1150 x_mem.x_cell_29_31.             sram               1.00 
     1151 x_mem.x_cell_30_0.              sram               1.00 
     1152 x_mem.x_cell_30_1.              sram               1.00 
     1153 x_mem.x_cell_30_2.              sram               1.00 
     1154 x_mem.x_cell_30_3.              sram               1.00 
     1155 x_mem.x_cell_30_4.              sram               1.00 
     1156 x_mem.x_cell_30_5.              sram               1.00 
     1157 x_mem.x_cell_30_6.              sram               1.00 
     1158 x_mem.x_cell_30_7.              sram               1.00 
     1159 x_mem.x_cell_30_8.              sram               1.00 
     1160 x_mem.x_cell_30_9.              sram               1.00 
     1161 x_mem.x_cell_30_10.             sram               1.00 
     1162 x_mem.x_cell_30_11.             sram               1.00 
     1163 x_mem.x_cell_30_12.             sram               1.00 
     1164 x_mem.x_cell_30_13.             sram               1.00 
     1165 x_mem.x_cell_30_14.             sram               1.00 
     1166 x_mem.x_cell_30_15.             sram               1.00 
     1167 x_mem.x_cell_30_16.             sram               1.00 
     1168 x_mem.x_cell_30_17.             sram               1.00 
     1169 x_mem.x_cell_30_18.             sram               1.00 
     1170 x_mem.x_cell_30_19.             sram               1.00 
     1171 x_mem.x_cell_30_20.             sram               1.00 
[...]
    1.12000n   -3.9905u          699.9947m          
    1.13000n  -15.4198u          699.9800m          
    1.14000n   45.9163u          700.0548m          
    1.15000n  555.6384u          700.7106m          
    1.16000n    1.1260m          701.4918m          
    1.17000n    2.6986m          701.6234m          
    1.18000n   18.4689m          703.0190m          
    1.19000n   46.5083m          703.1134m          
    1.20000n   66.7496m          702.1262m          
    1.21000n   83.2686m          701.1953m          
    1.22000n   91.6762m          700.7839m          
    1.23000n   97.0635m          700.5429m          
    1.24000n  101.2963m          700.3672m          
    1.25000n  101.4616m          700.0825m          
    1.26000n  101.3431m          699.7901m          
    1.27000n   92.8117m          699.3876m          
    1.28000n   83.8288m          698.9793m          
    1.29000n   71.7891m          698.6687m          
    1.30000n   56.3611m          698.4666m          
    1.31000n   36.5794m          698.4038m          
    1.32000n   24.3116m          698.8559m          
    1.33000n   16.8326m          699.6360m          
    1.34000n   10.0511m          700.2620m          
    1.35000n    7.4643m          699.9611m          
    1.36000n    4.8776m          699.6602m          
    1.37000n    2.7465m          699.5102m          
    1.38000n    1.9917m          699.8157m          
    1.39000n    1.2369m          700.1212m          
    1.40000n  524.5558u          700.4020m          
    1.41000n  543.4736u          700.2561m          
    1.42000n  562.3914u          700.1101m          
    1.43000n  581.3092u          699.9641m          
    1.44000n  600.2270u          699.8182m          
    1.45000n  619.1448u          699.6722m          
    1.46000n  510.4083u          699.7386m          
    1.47000n  355.9448u          699.8810m          
    1.48000n  201.4813u          700.0235m          
    1.49000n   47.0178u          700.1659m          
    1.50000n -107.4457u          700.3084m          
    1.51000n  135.1027u          699.9963m          
    1.52000n  102.8544u          699.9980m          
    1.53000n  102.0789u          700.0007m          
    1.54000n -219.4525u          699.9296m          
    1.55000n -976.7683u          699.9681m          
    1.56000n   -1.1890m          699.9910m          
    1.57000n   -1.2203m          700.0012m          
    1.58000n -966.0296u          700.0211m          
    1.59000n   86.8419u          700.0744m          
    1.60000n    1.1397m          700.1277m          
    1.61000n    3.3429m          700.2125m          
    1.62000n    6.6153m          700.3266m          
    1.63000n   10.4793m          700.1713m          
    1.64000n   14.9086m          699.7487m          
    1.65000n   17.9613m          699.2536m          
    1.66000n   12.1366m          697.7023m          
    1.67000n    1.0560m          697.8756m          
    1.68000n -642.7894u          699.1490m          
    1.69000n -508.6004u          699.2914m          
    1.70000n   12.2134u          699.9717m          
    1.71000n -142.1604u          699.8290m          
    1.72000n  -44.7224u          699.9376m          
    1.73000n   62.5142u          700.0544m          
    1.74000n  -69.7171u          699.9289m          
    1.75000n  -36.6306u          699.9634m          
    1.76000n  103.8405u          700.1018m          
    1.77000n   33.7036u          700.0344m          
    1.78000n  -57.7494u          699.9461m          
    1.79000n  -76.9849u          699.9266m          
    1.80000n  -25.4687u          699.9746m          
    1.81000n   26.0474u          700.0225m          
    1.82000n   77.5636u          700.0705m          
    1.83000n   45.6536u          700.0405m          
    1.84000n  -18.8245u          699.9801m          
    1.85000n  -83.3026u          699.9197m          
    1.86000n  -33.7808u          699.9672m          
    1.87000n   49.6400u          700.0467m          
    1.88000n   55.5212u          700.0524m          
    1.89000n  911.3024n          700.0006m          
    1.90000n   -2.5530u          699.9972m          
    1.91000n   24.8717u          700.0316m          
    1.92000n   12.4520u          700.0200m          
    1.93000n  -22.6182u          699.9699m          
    1.94000n  -10.9179u          699.9841m          
    1.95000n   -3.7944u          699.9944m          
    1.96000n  -11.3810u          699.9854m          
    1.97000n   -4.1320u          699.9934m          
    1.98000n   -2.1681u          699.9971m          
    1.99000n -851.5354n          699.9987m          
    2.00000n  295.2086n          699.9998m          
    2.01000n -146.0396n          699.9996m          
    2.02000n  -88.9550n          699.9997m          
    2.03000n   -5.0142n          699.9998m          
    2.04000n    3.4226u          700.0040m          
    2.05000n   -1.8169u          699.9977m          
    2.06000n  153.4563n          700.0004m          
    2.07000n   -5.1405u          699.9934m          
    2.08000n  813.6729n          700.0004m          
    2.09000n    1.5387u          700.0023m          
    2.10000n   -1.1158u          699.9985m          
    2.11000n  477.1047n          700.0002m          
    2.12000n    2.6223u          700.0033m          
    2.13000n  -14.4182u          699.9821m          
    2.14000n  -40.6126u          699.9462m          
    2.15000n  569.2427u          700.7129m          
    2.16000n    1.1264m          701.5038m          
    2.17000n    2.0275m          701.5900m          
    2.18000n   20.5245m          702.9847m          
    2.19000n   49.0427m          703.4286m          
    2.20000n   73.9937m          702.3697m          
    2.21000n   91.1340m          701.5396m          
    2.22000n  102.5910m          700.8796m          
    2.23000n  106.2837m          700.4912m          
    2.24000n  109.9764m          700.1029m          
    2.25000n  110.9212m          699.9050m          
    2.26000n  109.6550m          699.8604m          
    2.27000n  107.5049m          699.7945m          
    2.28000n  105.1947m          699.7057m          
    2.29000n  100.9654m          699.5666m          
    2.30000n   95.5578m          699.3798m          
    2.31000n   86.6046m          699.0346m          
    2.32000n   73.7062m          698.7992m          
    2.33000n   59.3885m          698.6038m          
    2.34000n   44.1386m          698.8443m          
    2.35000n   32.4104m          699.1627m          
    2.36000n   23.0380m          699.3847m          
    2.37000n   16.0569m          699.5581m          
    2.38000n   10.7125m          699.7240m          
    2.39000n    7.7257m          699.8073m          
    2.40000n    4.9822m          699.8847m          
    2.41000n    3.8139m          699.9238m          
    2.42000n    2.6456m          699.9629m          
    2.43000n    1.8527m          699.9860m          
    2.44000n    1.5727m          699.9874m          
    2.45000n    1.2928m          699.9889m          
    2.46000n    1.0129m          699.9903m          
    2.47000n  752.7562u          699.9916m          
    2.48000n  637.9218u          699.9921m          
    2.49000n  523.0874u          699.9927m          
    2.50000n  408.2530u          699.9932m          
    2.51000n  375.0776u          699.9962m          
    2.52000n  280.7336u          699.9923m          
    2.53000n  125.8790u          699.9846m          
    2.54000n -286.2818u          699.9377m          
    2.55000n -848.1929u          699.9761m          
    2.56000n   -1.0552m          699.9932m          
    2.57000n   -1.0806m          700.0021m          
    2.58000n -635.0529u          700.0285m          
    2.59000n  497.5502u          700.0822m          
    2.60000n    1.6302m          700.1359m          
    2.61000n    3.4294m          700.2040m          
    2.62000n    6.9502m          700.3092m          
    2.63000n   11.1454m          700.3325m          
    2.64000n   13.7975m          699.5266m          
    2.65000n   13.0185m          698.8872m          
    2.66000n    8.9267m          698.2298m          
    2.67000n  130.8630u          697.9853m          
    2.68000n -824.8709u          699.0235m          
    2.69000n -398.6553u          699.4335m          
    2.70000n -198.7981u          699.7878m          
    2.71000n  190.9565u          700.0853m          
    2.72000n  -91.4733u          699.9328m          
    2.73000n  -52.8012u          699.9619m          
    2.74000n  109.5293u          700.0567m          
    2.75000n  -69.7766u          699.9234m          
    2.76000n -110.9754u          699.8991m          
    2.77000n   66.1893u          700.0474m          
    2.78000n   40.8042u          700.0278m          
    2.79000n  -90.4400u          699.9205m          
    2.80000n  -42.7966u          699.9634m          
    2.81000n   80.5884u          700.0698m          
    2.82000n   70.0804u          700.0603m          
    2.83000n    2.7199u          700.0015m          
    2.84000n  -64.6407u          699.9427m          
    2.85000n  -90.9001u          699.9201m          
    2.86000n  -11.4269u          699.9903m          
    2.87000n   68.0463u          700.0605m          
    2.88000n   65.8094u          700.0581m          
    2.89000n    1.7902u          700.0011m          
    2.90000n   -2.4451u          699.9980m          
    2.91000n   -4.4081u          699.9958m          
    2.92000n   -6.1431u          699.9917m          
    2.93000n   -1.4291u          699.9962m          
    2.94000n   -4.4205u          699.9948m          
    2.95000n    9.7691u          700.0110m          
    2.96000n    5.9533u          700.0067m          
    2.97000n -947.3944n          700.0003m          
    2.98000n -283.3101n          699.9993m          
    2.99000n  905.9907n          700.0004m          
    3.00000n    2.7168u          700.0040m          
    3.01000n  126.4783n          699.9999m          
    3.02000n  248.5721n          700.0002m          
    3.03000n   10.3772n          699.9999m          
    3.04000n    1.7655u          700.0021m          
    3.05000n   -2.3940u          699.9970m          
    3.06000n -219.9891n          699.9999m          
    3.07000n   -4.6997u          699.9938m          
    3.08000n    2.8705u          700.0027m          
    3.09000n  758.6747n          700.0012m          
    3.10000n   -2.0110u          699.9972m          
    3.11000n    1.1939u          700.0011m          
    3.12000n    3.7662u          700.0048m          
    3.13000n  -16.1392u          699.9802m          
    3.14000n    6.7199u          700.0049m          
    3.15000n  581.2607u          700.7392m          
    3.16000n    1.1405m          701.5313m          
    3.17000n    3.4716m          701.7732m          
    3.18000n   22.1100m          703.0114m          
    3.19000n   49.8357m          703.2824m          
    3.20000n   75.7273m          702.3317m          
    3.21000n   91.7678m          701.5264m          
    3.22000n  100.8816m          700.9256m          
    3.23000n  106.8325m          700.4180m          
    3.24000n  110.2312m          700.0576m          
    3.25000n  110.0838m          699.9015m          
    3.26000n  108.2417m          699.8288m          
    3.27000n  106.1077m          699.7575m          
    3.28000n  102.2008m          699.6048m          
    3.29000n   96.0463m          699.3488m          
    3.30000n   85.4165m          698.9128m          
    3.31000n   70.7583m          698.3445m          
    3.32000n   54.0492m          698.6062m          
    3.33000n   40.4944m          699.0188m          
    3.34000n   30.1594m          699.2997m          
    3.35000n   22.1582m          699.4221m          
    3.36000n   15.7580m          699.6236m          
    3.37000n   11.1751m          699.7226m          
    3.38000n    7.3894m          699.7767m          
    3.39000n    4.7341m          699.8414m          
    3.40000n    3.4332m          699.9188m          
    3.41000n    2.1324m          699.9963m          
    3.42000n    1.2769m          700.0332m          
    3.43000n    1.0571m          700.0120m          
    3.44000n  837.4028u          699.9909m          
    3.45000n  617.6768u          699.9698m          
    3.46000n  469.7536u          699.9642m          
    3.47000n  432.3775u          699.9823m          
    3.48000n  395.0014u          700.0005m          
    3.49000n  357.6253u          700.0187m          
    3.50000n  320.2492u          700.0369m          
    3.51000n  249.4515u          699.9971m          
    3.52000n  187.9927u          699.9953m          
    3.53000n   -6.2492u          699.9810m          
    3.54000n -359.9796u          699.9504m          
    3.55000n -871.1938u          699.9772m          
    3.56000n -998.6882u          699.9963m          
    3.57000n -984.5961u          700.0045m          
    3.58000n -549.4479u          700.0284m          
    3.59000n  744.9738u          700.0851m          
    3.60000n    2.0394m          700.1417m          
    3.61000n    3.3338m          700.1984m          
    3.62000n    5.7775m          700.0675m          
    3.63000n    8.1749m          699.8766m          
    3.64000n    9.1001m          699.2193m          
    3.65000n    7.7774m          698.7439m          
    3.66000n    2.8115m          698.1028m          
    3.67000n   -1.0230m          698.6670m          
    3.68000n -317.3727u          699.2664m          
    3.69000n -311.9997u          699.7028m          
    3.70000n   13.6809u          699.9611m          
    3.71000n   -1.5429u          699.9850m          
    3.72000n  -64.7691u          699.9595m          
    3.73000n   51.9434u          700.0268m          
    3.74000n   35.5109u          700.0026m          
    3.75000n -118.4411u          699.8839m          
    3.76000n   -3.5157u          699.9849m          
    3.77000n   33.6665u          700.0199m          
    3.78000n  -33.7135u          699.9672m          
    3.79000n  -50.5924u          699.9561m          
    3.80000n   30.0927u          700.0254m          
    3.81000n   47.9447u          700.0407m          
    3.82000n   10.5986u          700.0085m          
    3.83000n  -26.7475u          699.9762m          
    3.84000n  -64.0936u          699.9440m          
    3.85000n  -39.1253u          699.9658m          
    3.86000n  -11.1244u          699.9903m          
    3.87000n   16.8766u          700.0148m          
    3.88000n   44.8775u          700.0393m          
    3.89000n   57.1571u          700.0500m          
    3.90000n   36.7639u          700.0321m          
    3.91000n   16.3707u          700.0141m          
    3.92000n   -4.0225u          699.9962m          
    3.93000n  -24.4157u          699.9782m          
    3.94000n  -44.8089u          699.9603m          
    3.95000n  -58.9109u          699.9479m          
    3.96000n  -34.9909u          699.9690m          
    3.97000n  -11.0709u          699.9902m          
    3.98000n   12.8491u          700.0114m          
    3.99000n   36.7692u          700.0326m          
    4.00000n   60.6892u          700.0537m          
    4.01000n   -1.5015u          699.9984m          
    4.02000n    1.2913u          700.0011m          
    4.03000n  486.0869n          700.0005m          
    4.04000n    1.2547u          700.0015m          
    4.05000n   -1.2174u          699.9981m          
    4.06000n   -1.1875u          699.9985m          
    4.07000n   -4.4879u          699.9937m          
    4.08000n    3.1312u          700.0036m          
    4.09000n -272.0634n          699.9997m          
    4.10000n -959.2428n          699.9985m          
    4.11000n    2.2826u          700.0026m          
    4.12000n  896.9254n          700.0014m          
    4.13000n  -24.4411u          699.9688m          
    4.14000n  148.2365u          700.1799m          
    4.15000n  849.0671u          701.0944m          
    4.16000n    1.2574m          701.5535m          
    4.17000n    6.5661m          702.1227m          
    4.18000n   30.7994m          703.4417m          
    4.19000n   58.5994m          702.9754m          
    4.20000n   80.7549m          702.0810m          
    4.21000n   96.7768m          701.2774m          
    4.22000n  102.8038m          700.7674m          
    4.23000n  108.8307m          700.2575m          
    4.24000n  110.7921m          699.9825m          
    4.25000n  109.7144m          699.8831m          
    4.26000n  107.7464m          699.8121m          
    4.27000n  105.6756m          699.7419m          
    4.28000n  100.8475m          699.5528m          
    4.29000n   94.0405m          699.2782m          
    4.30000n   82.0569m          698.8011m          
    4.31000n   66.7105m          698.3342m          
    4.32000n   50.1946m          698.7038m          
    4.33000n   37.8628m          699.1132m          
    4.34000n   28.0457m          699.3267m          
    4.35000n   20.7171m          699.4560m          
    4.36000n   14.8601m          699.6345m          
    4.37000n    9.9722m          699.7716m          
    4.38000n    7.2178m          699.8175m          
    4.39000n    4.4634m          699.8635m          
    4.40000n    2.5809m          699.9114m          
    4.41000n    1.9894m          699.9623m          
    4.42000n    1.3979m          700.0132m          
    4.43000n  878.1482u          700.0522m          
    4.44000n  750.8361u          700.0259m          
    4.45000n  623.5240u          699.9996m          
    4.46000n  496.2118u          699.9733m          
    4.47000n  368.8997u          699.9470m          
    4.48000n  351.6737u          699.9775m          
    4.49000n  342.4013u          700.0122m          
    4.50000n  333.1290u          700.0469m          
y

          ***** job concluded
 ******  
 * ==========================================

 ****** job statistics summary tnom=  25.000 temp=  25.000 ******
  
 ******  Machine Information  ******
 CPU:
 model name	: AMD EPYC 7773X 64-Core Processor
 cpu MHz	: 2200.000
  
 OS:
 Linux version 3.10.0-1160.88.1.el7.x86_64 (mockbuild@kbuilder.bsys.centos.org) (gcc version 4.8.5 20150623 (Red Hat 4.8.5-44) (GCC) ) #1 SMP Tue Mar 7 15:41:52 UTC 2023


  ******  HSPICE Threads Information  ******

  Command Line Threads Count :     1
  Available CPU Count        :   256
  Actual Threads Count       :     1


  ******  Circuit Statistics  ******
  # nodes       =    4694 # elements   =   13520
  # resistors   =       0 # capacitors =       0 # inductors   =       0
  # mutual_inds =       0 # vccs       =       0 # vcvs        =       0
  # cccs        =       0 # ccvs       =       0 # volt_srcs   =      26
  # curr_srcs   =       0 # diodes     =       0 # bjts        =       0
  # jfets       =       0 # mosfets    =   13494 # U elements  =       0
  # T elements  =       0 # W elements =       0 # B elements  =       0
  # S elements  =       0 # P elements =       0 # va device   =       0
  # vector_srcs =       0 # N elements =       0


  ******  Runtime Statistics (seconds)  ******

  analysis           time    # points   tot. iter  conv.iter
  op point           0.72           1          13
  transient         17.15         451        1501         462 rev=        18
  readin             0.11
  errchk             0.19
  setup              0.23
  output             0.00


           peak memory used        545.66 megabytes
           total cpu time           18.43 seconds
           total elapsed time       18.55 seconds
           job started at     17:09:40 06/26/2026
           job ended   at     17:09:58 06/26/2026
           job total runtime        18.55 seconds


 lic: Release hspice token(s) 
 lic: total license checkout elapse time:        0.11(s)
